data_BENZEN07
_audit_creation_date 1989-01-20
_audit_creation_method CSD-QUEST3D-V5
_database_code_CSD BENZEN07
_chemical_formula_sum  'C6 D6'
_symmetry_cell_setting orthorhombic
_symmetry_space_group_name_H-M  'P b c a'
_ccdc_symmetry_space_group_name Pbca
_symmetry_Int_Tables_number 61
loop_
_symmetry_equiv_pos_site_id
_symmetry_equiv_pos_as_xyz
  1  x,y,z
  2  1/2-x,1/2+y,z
  3  x,1/2-y,1/2+z
  4  1/2-x,-y,1/2+z
  5  -x,-y,-z
  6  -1/2+x,-1/2-y,-z
  7  -x,-1/2+y,-1/2-z
  8  -1/2+x,y,-1/2-z
_cell_length_a 7.398(2)
_cell_length_b 9.435(2)
_cell_length_c 6.778(1)
_cell_angle_alpha 90
_cell_angle_beta 90
_cell_angle_gamma 90
_cell_formula_units_Z 4
_ccdc_flag_disorder no
_ccdc_flag_error no
_ccdc_flag_match full
_ccdc_flag_sigma(C-C) 1
_ccdc_R_factor 4.60
loop_
_atom_type_symbol
_atom_type_radius_bond
C 0.68
D 0.23
loop_
_ccdc_atom_site_atom_id_number
_atom_site_label
_atom_site_type_symbol
_atom_site_fract_x
_atom_site_fract_y
_atom_site_fract_z
_ccdc_atom_site_symmetry
_ccdc_atom_site_base
1 C1 C -0.05996(10) 0.13994(8) -0.00585(13) 1_555 1
2 C2 C -0.13780(11) 0.04457(8) 0.12635(12) 1_555 2
3 C3 C 0.07701(10) 0.09537(8) -0.13229(12) 1_555 3
4 D1 D -0.10666(14) 0.24875(11) -0.01075(20) 1_555 4
5 D2 D -0.24541(15) 0.07799(12) 0.22470(17) 1_555 5
6 D3 D 0.13660(16) 0.16896(11) -0.23614(17) 1_555 6
7 C3D C -0.07701 -0.09537 0.13229 5_555 3
8 C2D C 0.13780 -0.04457 -0.12635 5_555 2
9 C1D C 0.05996 -0.13994 0.00585 5_555 1
10 D3D D -0.13660 -0.16896 0.23614 5_555 6
11 D2D D 0.24541 -0.07799 -0.22470 5_555 5
12 D1D D 0.10666 -0.24875 0.01075 5_555 4
loop_
_atom_id
_atom_type
_atom_attach_nh
_atom_attach_h
_atom_charge
1 C 3 0 0
2 C 3 0 0
3 C 3 0 0
4 D 1 0 0
5 D 1 0 0
6 D 1 0 0
7 C 3 0 0
8 C 3 0 0
9 C 3 0 0
10 D 1 0 0
11 D 1 0 0
12 D 1 0 0
loop_
_bond_id_1
_bond_id_2
_bond_type_ccdc
_bond_environment
1 2 A ring
2 5 S chain
3 1 A ring
4 1 S chain
6 3 S chain
7 2 A ring
8 3 A ring
9 7 A ring
10 7 S chain
11 8 S chain
12 9 S chain
8 9 A ring
data_NAPHTA10
_audit_creation_date 1983-03-10
_audit_creation_method CSD-QUEST3D-V5
_database_code_CSD NAPHTA10
_chemical_formula_sum  'C10 H8'
_symmetry_cell_setting monoclinic
_symmetry_space_group_name_H-M  'P 21/a'
_ccdc_symmetry_space_group_name P21/a
_symmetry_Int_Tables_number 14
loop_
_symmetry_equiv_pos_site_id
_symmetry_equiv_pos_as_xyz
  1  x,y,z
  2  1/2-x,1/2+y,-z
  3  -x,-y,-z
  4  -1/2+x,-1/2-y,z
_cell_length_a 8.2128(22)
_cell_length_b 5.9727(13)
_cell_length_c 8.6745(18)
_cell_angle_alpha 90
_cell_angle_beta 123.388(18)
_cell_angle_gamma 90
_cell_formula_units_Z 2
_ccdc_flag_disorder no
_ccdc_flag_error no
_ccdc_flag_match full
_ccdc_flag_sigma(C-C) 1
_ccdc_R_factor 3.50
loop_
_atom_type_symbol
_atom_type_radius_bond
C 0.68
H 0.23
loop_
_ccdc_atom_site_atom_id_number
_atom_site_label
_atom_site_type_symbol
_atom_site_fract_x
_atom_site_fract_y
_atom_site_fract_z
_ccdc_atom_site_symmetry
_ccdc_atom_site_base
1 C1 C 0.08380 0.01760 0.32630 1_555 1
2 C2 C 0.11460 0.16070 0.22160 1_555 2
3 C3 C 0.04820 0.10390 0.03640 1_555 3
4 C4 C 0.07620 0.24890 -0.07670 1_555 4
5 C5 C -0.01160 -0.18840 0.25430 1_555 5
6 H1 H 0.12510 0.04980 0.44400 1_555 6
7 H2 H 0.17780 0.30140 0.26710 1_555 7
8 H3 H 0.13810 0.38560 -0.02890 1_555 8
9 H4 H -0.02170 -0.28090 0.33340 1_555 9
10 C3B C -0.04820 -0.10390 -0.03640 3_555 3
11 C5B C 0.01160 0.18840 -0.25430 3_555 5
12 C4B C -0.07620 -0.24890 0.07670 3_555 4
13 C2B C -0.11460 -0.16070 -0.22160 3_555 2
14 C1B C -0.08380 -0.01760 -0.32630 3_555 1
15 H4B H 0.02170 0.28090 -0.33340 3_555 9
16 H3B H -0.13810 -0.38560 0.02890 3_555 8
17 H2B H -0.17780 -0.30140 -0.26710 3_555 7
18 H1B H -0.12510 -0.04980 -0.44400 3_555 6
loop_
_atom_id
_atom_type
_atom_attach_nh
_atom_attach_h
_atom_charge
1 C 2 1 0
2 C 2 1 0
3 C 3 0 0
4 C 2 1 0
5 C 2 1 0
10 C 3 0 0
11 C 2 1 0
12 C 2 1 0
13 C 2 1 0
14 C 2 1 0
loop_
_bond_id_1
_bond_id_2
_bond_type_ccdc
_bond_environment
1 2 A ring
2 3 A ring
3 4 A ring
4 8 S chain
5 1 A ring
6 1 S chain
7 2 S chain
9 5 S chain
10 3 A ring
11 4 A ring
12 5 A ring
13 10 A ring
14 11 A ring
15 11 S chain
16 12 S chain
17 13 S chain
18 14 S chain
10 12 A ring
13 14 A ring
data_ANTCEN10
_audit_creation_date 1991-07-31
_audit_creation_method CSD-QUEST3D-V5
_database_code_CSD ANTCEN10
_chemical_formula_sum  'C14 H10'
_symmetry_cell_setting monoclinic
_symmetry_space_group_name_H-M  'P 21/a'
_ccdc_symmetry_space_group_name P21/a
_symmetry_Int_Tables_number 14
loop_
_symmetry_equiv_pos_site_id
_symmetry_equiv_pos_as_xyz
  1  x,y,z
  2  1/2-x,1/2+y,-z
  3  -x,-y,-z
  4  -1/2+x,-1/2-y,z
_cell_length_a 8.4414(15)
_cell_length_b 5.9958(15)
_cell_length_c 11.1123(13)
_cell_angle_alpha 90
_cell_angle_beta 125.175(14)
_cell_angle_gamma 90
_cell_formula_units_Z 2
_ccdc_flag_disorder no
_ccdc_flag_error no
_ccdc_flag_match full
_ccdc_flag_sigma(C-C) 1
_ccdc_R_factor 3.90
loop_
_atom_type_symbol
_atom_type_radius_bond
C 0.68
H 0.23
loop_
_ccdc_atom_site_atom_id_number
_atom_site_label
_atom_site_type_symbol
_atom_site_fract_x
_atom_site_fract_y
_atom_site_fract_z
_ccdc_atom_site_symmetry
_ccdc_atom_site_base
1 C1 C 0.0864(3) 0.0270(3) 0.3675(2) 1_555 1
2 C2 C 0.1172(2) 0.1554(3) 0.2824(2) 1_555 2
3 C3 C 0.0586(2) 0.0816(3) 0.1394(2) 1_555 3
4 C4 C 0.0871(2) 0.2105(3) 0.0490(2) 1_555 4
5 C5 C -0.0305(2) -0.1338(3) 0.0896(2) 1_555 5
6 C6 C -0.0601(2) -0.2631(3) 0.1831(2) 1_555 6
7 C7 C -0.0047(3) -0.1851(4) 0.3169(2) 1_555 7
8 H1 H 0.122(3) 0.074(3) 0.466(2) 1_555 8
9 H2 H 0.180(2) 0.303(3) 0.316(2) 1_555 9
10 H3 H 0.151(3) 0.355(3) 0.086(2) 1_555 10
11 H4 H -0.123(2) -0.413(3) 0.148(2) 1_555 11
12 H5 H -0.028(3) -0.277(3) 0.380(2) 1_555 12
13 C5B C 0.0305 0.1338 -0.0896 3_555 5
14 C4B C -0.0871 -0.2105 -0.0490 3_555 4
15 C3B C -0.0586 -0.0816 -0.1394 3_555 3
16 C6B C 0.0601 0.2631 -0.1831 3_555 6
17 H3B H -0.151 -0.355 -0.086 3_555 10
18 C2B C -0.1172 -0.1554 -0.2824 3_555 2
19 C7B C 0.0047 0.1851 -0.3169 3_555 7
20 H4B H 0.123 0.413 -0.148 3_555 11
21 C1B C -0.0864 -0.0270 -0.3675 3_555 1
22 H2B H -0.180 -0.303 -0.316 3_555 9
23 H5B H 0.028 0.277 -0.380 3_555 12
24 H1B H -0.122 -0.074 -0.466 3_555 8
loop_
_atom_id
_atom_type
_atom_attach_nh
_atom_attach_h
_atom_charge
1 C 2 1 0
2 C 2 1 0
3 C 3 0 0
4 C 2 1 0
5 C 3 0 0
6 C 2 1 0
7 C 2 1 0
13 C 3 0 0
14 C 2 1 0
15 C 3 0 0
16 C 2 1 0
18 C 2 1 0
19 C 2 1 0
21 C 2 1 0
loop_
_bond_id_1
_bond_id_2
_bond_type_ccdc
_bond_environment
1 2 A ring
2 3 A ring
3 4 A ring
4 10 S chain
5 3 A ring
6 5 A ring
7 1 A ring
8 1 S chain
9 2 S chain
11 6 S chain
12 7 S chain
13 4 A ring
14 5 A ring
15 13 A ring
16 13 A ring
17 14 S chain
18 15 A ring
19 16 A ring
20 16 S chain
21 18 A ring
22 18 S chain
23 19 S chain
24 21 S chain
6 7 A ring
14 15 A ring
19 21 A ring
data_PHENAN13
_audit_creation_date 1971-12-31
_audit_creation_method CSD-QUEST3D-V5
_database_code_CSD PHENAN13
_chemical_formula_sum  'C14 H10'
_symmetry_cell_setting monoclinic
_symmetry_space_group_name_H-M  'P 21'
_ccdc_symmetry_space_group_name P21
_symmetry_Int_Tables_number 4
loop_
_symmetry_equiv_pos_site_id
_symmetry_equiv_pos_as_xyz
  1  x,y,z
  2  -x,1/2+y,-z
_cell_length_a 8.472(4)
_cell_length_b 6.166(4)
_cell_length_c 9.467(5)
_cell_angle_alpha 90
_cell_angle_beta 98.01(5)
_cell_angle_gamma 90
_cell_formula_units_Z 2
_ccdc_flag_disorder no
_ccdc_flag_error no
_ccdc_flag_match full
_ccdc_flag_sigma(C-C) 2
_ccdc_R_factor 6.00
loop_
_atom_type_symbol
_atom_type_radius_bond
C 0.68
H 0.20
loop_
_ccdc_atom_site_atom_id_number
_atom_site_label
_atom_site_type_symbol
_atom_site_fract_x
_atom_site_fract_y
_atom_site_fract_z
_ccdc_atom_site_symmetry
_ccdc_atom_site_base
1 C1 C 0.16740 0.38580 -0.30430 1_555 1
2 C2 C 0.31950 0.57800 -0.10340 1_555 2
3 C3 C 0.22610 0.39530 -0.15630 1_555 3
4 C4 C 0.19040 0.22790 -0.06290 1_555 4
5 C5 C 0.25520 0.24050 0.08800 1_555 5
6 C6 C 0.34680 0.42370 0.13670 1_555 6
7 C7 C 0.07430 0.20860 -0.35730 1_555 7
8 C8 C 0.03800 0.04680 -0.26560 1_555 8
9 C9 C 0.09320 0.05510 -0.12030 1_555 9
10 C10 C 0.22790 0.08060 0.18470 1_555 10
11 C11 C 0.29250 0.10220 0.32860 1_555 11
12 C12 C 0.38640 0.28180 0.37640 1_555 12
13 C13 C 0.41220 0.44210 0.28040 1_555 13
14 C14 C 0.37840 0.59420 0.03650 1_555 14
15 H1 H 0.19800 0.51600 -0.37500 1_555 15
16 H2 H 0.34800 0.70100 -0.17400 1_555 16
17 H3 H 0.02800 0.19700 -0.46500 1_555 17
18 H4 H -0.04000 -0.09000 -0.30400 1_555 18
19 H5 H 0.06100 -0.07100 -0.05300 1_555 19
20 H6 H 0.16200 -0.06800 0.15500 1_555 20
21 H7 H 0.27100 -0.02700 0.40400 1_555 21
22 H8 H 0.43200 0.28800 0.48700 1_555 22
23 H9 H 0.48800 0.58400 0.31400 1_555 23
24 H10 H 0.44800 0.72400 0.07900 1_555 24
loop_
_atom_id
_atom_type
_atom_attach_nh
_atom_attach_h
_atom_charge
1 C 2 1 0
2 C 2 1 0
3 C 3 0 0
4 C 3 0 0
5 C 3 0 0
6 C 3 0 0
7 C 2 1 0
8 C 2 1 0
9 C 2 1 0
10 C 2 1 0
11 C 2 1 0
12 C 2 1 0
13 C 2 1 0
14 C 2 1 0
loop_
_bond_id_1
_bond_id_2
_bond_type_ccdc
_bond_environment
1 3 A ring
2 3 A ring
3 4 A ring
4 5 A ring
5 6 A ring
6 13 A ring
7 1 A ring
8 7 A ring
9 4 A ring
10 5 A ring
11 10 A ring
12 11 A ring
13 12 A ring
14 2 A ring
15 1 S chain
16 2 S chain
17 7 S chain
18 8 S chain
19 9 S chain
20 10 S chain
21 11 S chain
22 12 S chain
23 13 S chain
24 14 S chain
6 14 A ring
8 9 A ring
data_TRIPHE11
_audit_creation_date 1974-05-08
_audit_creation_method CSD-QUEST3D-V5
_database_code_CSD TRIPHE11
_chemical_formula_sum  'C18 H12'
_symmetry_cell_setting orthorhombic
_symmetry_space_group_name_H-M  'P 21 21 21'
_ccdc_symmetry_space_group_name P212121
_symmetry_Int_Tables_number 19
loop_
_symmetry_equiv_pos_site_id
_symmetry_equiv_pos_as_xyz
  1  x,y,z
  2  1/2+x,1/2-y,-z
  3  -x,1/2+y,1/2-z
  4  1/2-x,-y,1/2+z
_cell_length_a 13.17(3)
_cell_length_b 16.73(3)
_cell_length_c 5.26(1)
_cell_angle_alpha 90
_cell_angle_beta 90
_cell_angle_gamma 90
_cell_formula_units_Z 4
_ccdc_flag_disorder no
_ccdc_flag_error no
_ccdc_flag_match full
_ccdc_flag_sigma(C-C) 2
_ccdc_R_factor 4.80
loop_
_atom_type_symbol
_atom_type_radius_bond
C 0.68
H 0.20
loop_
_ccdc_atom_site_atom_id_number
_atom_site_label
_atom_site_type_symbol
_atom_site_fract_x
_atom_site_fract_y
_atom_site_fract_z
_ccdc_atom_site_symmetry
_ccdc_atom_site_base
1 C1 C 0.44040 -0.30070 -0.42840 1_555 1
2 C2 C 0.55560 -0.48370 -1.15160 1_555 2
3 C3 C 0.56400 -0.54410 -1.33730 1_555 3
4 C4 C 0.48920 -0.60320 -1.35820 1_555 4
5 C5 C 0.40780 -0.60380 -1.19290 1_555 5
6 C6 C 0.39970 -0.54510 -1.00680 1_555 6
7 C7 C 0.47140 -0.48350 -0.98950 1_555 7
8 C8 C 0.45980 -0.42080 -0.79350 1_555 8
9 C9 C 0.37900 -0.42110 -0.62110 1_555 9
10 C10 C 0.36810 -0.36210 -0.44060 1_555 10
11 C11 C 0.52060 -0.29940 -0.59530 1_555 11
12 C12 C 0.53270 -0.35910 -0.78100 1_555 12
13 C13 C 0.61860 -0.35730 -0.95620 1_555 13
14 C14 C 0.69090 -0.29470 -0.95010 1_555 14
15 C15 C 0.76990 -0.29150 -1.12170 1_555 15
16 C16 C 0.78270 -0.35240 -1.29800 1_555 16
17 C17 C 0.71380 -0.41510 -1.30470 1_555 17
18 C18 C 0.63040 -0.41860 -1.14110 1_555 18
19 H1 H 0.43640 -0.25450 -0.28800 1_555 19
20 H2 H 0.62490 -0.54570 -1.45400 1_555 20
21 H3 H 0.49880 -0.64900 -1.50100 1_555 21
22 H4 H 0.35010 -0.64900 -1.21300 1_555 22
23 H5 H 0.33550 -0.54810 -0.88500 1_555 23
24 H6 H 0.32370 -0.46970 -0.62300 1_555 24
25 H7 H 0.30740 -0.36600 -0.30500 1_555 25
26 H8 H 0.57380 -0.25170 -0.57300 1_555 26
27 H9 H 0.68280 -0.24810 -0.82000 1_555 27
28 H10 H 0.82460 -0.24320 -1.10600 1_555 28
29 H11 H 0.84390 -0.35080 -1.43900 1_555 29
30 H12 H 0.72280 -0.46210 -1.45600 1_555 30
loop_
_atom_id
_atom_type
_atom_attach_nh
_atom_attach_h
_atom_charge
1 C 2 1 0
2 C 3 0 0
3 C 2 1 0
4 C 2 1 0
5 C 2 1 0
6 C 2 1 0
7 C 3 0 0
8 C 3 0 0
9 C 2 1 0
10 C 2 1 0
11 C 2 1 0
12 C 3 0 0
13 C 3 0 0
14 C 2 1 0
15 C 2 1 0
16 C 2 1 0
17 C 2 1 0
18 C 3 0 0
loop_
_bond_id_1
_bond_id_2
_bond_type_ccdc
_bond_environment
1 10 A ring
2 3 A ring
3 4 A ring
4 5 A ring
5 6 A ring
6 7 A ring
7 2 A ring
8 7 A ring
9 8 A ring
10 9 A ring
11 1 A ring
12 8 A ring
13 12 A ring
14 13 A ring
15 14 A ring
16 15 A ring
17 16 A ring
18 2 A ring
19 1 S chain
20 3 S chain
21 4 S chain
22 5 S chain
23 6 S chain
24 9 S chain
25 10 S chain
26 11 S chain
27 14 S chain
28 15 S chain
29 16 S chain
30 17 S chain
11 12 A ring
13 18 A ring
17 18 A ring
 
