
data_nh3

_audit_creation_method            SHELXL

_chemical_name_systematic
;
 Amino(triphenyl)phosphonium Bromide
;
_chemical_name_common             ?
_chemical_formula_moiety          ?
_chemical_formula_structural      ?
_chemical_formula_analytical      ?
_chemical_formula_sum             'C18 H17 Br N P'
_chemical_formula_weight          358.21
_chemical_melting_point           ?
_chemical_compound_source         ?

_symmetry_cell_setting            Orthorhombic
_symmetry_space_group_name_H-M    P2(1)3

_cell_length_a                    5.1305(1)
_cell_length_b                    5.1305(1)
_cell_length_c                    5.1305(1)
_cell_angle_alpha                 90.00
_cell_angle_beta                  90.00
_cell_angle_gamma                 90.00

loop_
 _atom_site_type_symbol
 _atom_site_fract_x
 _atom_site_fract_y
 _atom_site_fract_z
N  0.2103(1)  0.2103(1)  0.2103(1)  
H  0.3722(1)  0.2627(1)  0.1113(1)  
H  0.1113(1)  0.3722(1)  0.2627(1)  
H  0.2627(1)  0.1113(1)  0.3722(1) 


#============================================================================

_eof  # End of Crystallographic Information File


  ------------------------------------------------------------------------
Ahead to E - Distribution and Installation of SHELXL-93

Back to C - Tables Production from '.cif' and '.fcf' Files using CIFTAB

Back to Appendices

Back to Table of Contents
